Geom Title=100ft_Mod
Program Version=6.10
Viewing Rectangle= 1024276.82827958 , 1027738.095898 , 7858711.42555638 , 7850027.06039667 

Storage Area=Perimeter 1     ,,
Storage Area Surface Line= 41 
1026014.689182167857452.32260213                
1026071.443251117857824.21715189                
1026104.020653997858052.98903051                
 1026112.81241057858137.74847282                
1027214.350749317858120.93772509                
1027231.593686397857763.89618014                
1027280.315342027857357.88238325                
 1027438.66072287856736.68127402                
1027519.86348218 7856440.2912023                
1027548.28444796 7856115.4801648                
1027580.765551717855656.68457432                
1027552.344585937855327.81339885                
1027487.382378437854860.89753243                
1027385.878929217854393.98166602                
1027268.134928117853955.48676539                
 1027190.99230677853606.31490007                
1027138.210513117853334.28565616                
1027036.707063897852753.68592662                
1026914.902924827852238.04840458                
1026837.760303427851864.51571144                
1026768.737957957851503.16343222                
1026699.715612487851235.19432628                
1026626.633129047850833.24066736                
 1026553.55064567850488.12894001                
1024486.940419477850788.57914971                
1024434.158625887850821.06025346                
1024661.526352137851369.17887925                
1024840.172422767851925.41778098                
1024880.773802457852319.25116395                
1024868.59338854 7852976.9935149                
1024775.210215267853586.01421022                
1024746.789249487854097.59159429                
1024872.653526517854418.34249383                
1025056.830300717854724.07195809                
1025195.693496167854973.07355392                
1025375.331260187855578.62434022                
 1025571.52518267856092.81632413                
1025741.661290077856405.83663495                
1025886.908644267856804.50953035                
1025964.830640127857138.63493294                
1026014.689182167857452.32260213                
Storage Area Type= 1 
Storage Area Area=
Storage Area Min Elev=
Storage Area Is2D=-1
Storage Area Point Generation Data=,,600,600
Storage Area 2D Points= 356 
1026293.682201327857287.293298691026398.126156617857069.40670785
1026433.246277547856847.728085171026605.883665687856865.38454889
1026084.887298117855780.411485421025860.112614057855662.27614945
 1025798.58734687855475.902551251025944.28031133 7855432.3866903
1025740.658170227855310.867987481025903.106538957855265.07709225
1025861.750293297855089.45769618 1025645.98837317854932.42749453
1025836.491330377854916.195672721025630.399360497854746.27680414
1025821.307726577854733.279627841025608.586963217854565.95976463
1025823.024151347854543.881341321025597.31423683 7854386.6879494
1025812.284357697854368.218712571025590.248218067854197.51470088
1025807.178500817854184.510452371025397.593855987854034.12563895
 1025804.15019047854017.46378477 1025594.96680687853848.50042938
1025793.619447987853842.667812291025579.566517437853638.14019782
1025794.761766857853617.052915061025763.404120697853419.79519042
1025554.668266057853241.856392021025729.843796587853219.11410557
1025682.301297557852842.579295241025832.882894947852850.55362743
1025381.30108047 7852634.18479651025548.428264457852634.12470434
1025378.858725747852434.210771061025552.328779447852445.93009315
1025381.02886288 7852236.11736371025573.060860737852259.71456949
1025392.01454786 7852053.02785911025595.139368257852071.68673226
1025801.760944177852107.547497121025413.798241427851876.55993041
1025616.306055317851911.95491264 1025824.41882667851943.65938885
1025445.335434127851686.01888516 1025643.87127167851731.79647794
1025842.845293017851769.456297371025476.60789269 7851492.4633299
1025682.385135647851531.607163661025514.399199877851293.72091961
1025709.476744197851334.794284261025921.329729217851376.82673948
1025555.493280747851080.012624341025746.064103697851120.35189917
1025952.305919377851156.474445181025590.094945137850885.30267991
1025791.250753717850914.076916921025989.159092957850936.88594501
1025608.382520087850713.877676741025799.21891635 7850718.4594786
1025999.218916357850716.168577671026946.806873077857892.08430048
1026966.041570647857733.459072151026969.070435017857496.52626818
1026930.141448817857306.561515111026952.235536597857124.10535336
1026986.314800917856934.469366131026996.20789868 7856734.3774999
1027047.915142497856544.131755951027101.603531357856350.41491511
1027119.532793857856120.461846161027150.591993417855910.76912149
1027154.543269627855726.490074951027160.188791047855525.26857633
 1027166.71325017855313.186203381027181.418196797855132.96446453
1027203.424697497854957.237190671027238.985159857854779.81567161
1027254.988778237854593.752094091027302.525600217854356.98998117
 1027174.2655922 7853938.82454821027097.861560927853787.97258958
1027033.183792017853658.012876241026972.003415387853519.16044265
1026890.391304467853333.347063761026788.845299467853034.62175693
1026659.153127997852824.523660631026569.077449557852680.52821353
1026501.039467697852536.452036141026449.05587748 7852360.1666084
1026325.15716798 7852194.01895951026043.790215397852130.22696786
1025746.930324957852287.841197521025889.755712967852554.37446306
1025963.215251467852729.096764851025988.138256127852975.73674145
1026398.536860327853949.067700821026405.834680667854141.89032924
1026469.586645267854493.263541071026502.170218867854687.09693156
1026531.264152887854875.740723021026660.222341957855096.10918509
1026639.067218087855299.627393491026627.140640447855497.33406336
1026628.888849867855697.999860991026630.930911027855894.33938689
1026620.657138587856083.544658041026592.876177557856264.81087782
1026694.785584117856480.121044231026559.313394037856608.21456187
1026465.272782267856258.160441181026486.901226557856086.62601327
1026467.050241987855868.96876233 1026466.53918187855685.50192349
 1026460.96575427855465.313928441026507.314778027855283.53786987
1026272.947665117855037.070216031026262.176192997854877.89889326
1026255.953701047854711.145408641026242.074107337854523.52489866
1026230.954596917854356.96386613 1026205.91158747854172.74650659
1026201.272332537854013.638552561026250.484489227853781.57530282
1026213.685092477853543.380152731026120.441777227853338.10366304
1026044.638285787853115.884949551025984.498137727852628.36434756
1026114.997559257852287.084925281026302.476365867852013.54511027
1026290.690423547851813.519225921026299.190852897851661.39643882
1026333.446099177851474.825553061026415.772645797851236.31555036
1026462.702239257850980.989927881026451.437461047850683.66879405
 1025133.55883367850799.51316039 1025103.3023574 7851010.4851988
1025064.330699857851212.184824241025015.847745237851410.71757547
1025003.573977857851612.505659641024977.554804877851821.16644659
1024989.004244237852035.06231803 1024988.73319867852233.07136995
1025005.493820277852434.783991761024993.618180297852631.91481171
1024990.90614403 7852821.02747841025000.908607957853047.48183027
1025006.33161161 7853232.45611161025001.876635067853439.05680338
1024971.723602167853607.754939151024984.515062767853862.17267984
 1024984.42091277854054.743008951025003.304158577854241.75138254
1025023.799519927854434.142901941025078.111509577854629.66299195
1025381.81554892 7855414.07774151025446.516499957855602.31645278
1025513.27364123 7855799.48211961025581.989581177855988.20211597
1025681.81652143 7856154.29593031026127.450273067857681.30601304
1026174.937637277857869.252537351026216.068007617858045.76719384
1026728.114075247858071.122449951026727.049099647857898.76097965
1026715.72776057 7857704.67260491026727.787356427857513.71818263
1026737.46288802  7857325.4929871026730.195094047857102.66279341
1026735.17358628 7856898.36127161026794.881878577856691.56495981
1026828.607788287856510.473315861026850.903442617856313.31828738
1026872.133133097856104.642267981026874.390164097855906.80925977
1026873.258704697855708.976251571026893.943951367855309.11059831
1026908.692942217855115.959750821026923.922462067854906.91232118
1026957.41218028  7854744.7390091027022.774690097854536.91919336
 1027035.24489237854354.243573381027033.668368657854211.36067864
1026967.399854247854042.072859171026897.115214927853900.98858913
1026811.146993617853773.85255371 1026744.24444937853648.50081406
1026648.576436687853403.404719761026545.405541837853132.62033071
1026459.334298527852964.551176821026351.891858897852793.66381875
1026278.493881357852646.489574951026164.683181367852489.51863577
1026087.08904032 7852770.29232771026153.745046027852890.64552082
1026216.293597077853065.706380121026295.112439317853277.90787641
1026424.624509767853508.81146134 1026477.03853267853709.53261456
1026586.28251907 7853946.98466211026693.742149477854059.57903133
1026797.866808437854159.927071221026833.094113267854342.69759321
1026742.661014037854499.251136551026717.062497897854674.34185814
1026686.999084157854894.36697082 1026889.8066563  7855494.431942
1026695.973461097856655.553361271026311.438360247856667.22425332
1026329.437948097856451.318260441026354.366043937856262.59421923
 1026342.49516877856085.528946811026324.742997077855897.88049615
1026244.959033017855701.000690621026128.266530847855383.05138751
1026082.630027597855213.187843561026047.829229917855056.44238501
1026028.394466947854893.604287721026020.139517077854726.30982958
1026012.959311397854532.949504161026022.101550467854363.05870304
1026038.239141677854186.360643851026038.092269177854005.59021626
1026011.997940237853814.363935831025974.276860957853597.60619084
1025949.122586587853379.398982591025892.509906077853191.63376071
1025837.600492157853001.902468611025801.082757357852678.21939719
1026010.133397257851984.958589211026054.954923537851800.96383301
1026078.606987397851622.747018791026122.90804158 7851411.6938847
1026164.596814247851189.153133111026207.680268167850969.99071722
1026222.698033337850701.671374791025412.926133247850845.85225015
 1025359.79734677851049.966265361025311.845589017851259.77767735
1025275.33685107 7851452.8395461 1025242.4449753 7851650.0458284
1025223.29850512 7851847.25211071025202.747688357852036.46745247
1025200.042736317852225.457844891025201.304423287852431.61085492
1025216.137198167852638.946855671025223.204293867852831.39611151
1025218.501153597853048.77001087  1025217.1484977853239.52467998
 1025217.0551363 7853436.29754971025227.435651527853639.15902059
1025206.008468577853869.680370531025208.036151577854040.35766873
1025217.491232067854219.726809421025225.874633497854406.84555384
1025231.915613837854608.176690911025272.981088687854807.57316137
1025336.152316667854996.837255911025392.03480643 7855196.1588572
1025447.433023777855396.580565611025512.020379227855576.47295436
1025600.690874847855765.625715431025673.833482647855948.68916628
1025747.468041497856112.200683391025965.249745737856249.89398078
1026000.301279117856476.844606281025945.545925117856693.45676182
1026022.178830457856879.504989841026050.702816237857057.15324779
1026097.459852937857260.854573481026090.379844697857454.92010071
1026304.905610367857657.671067261026328.135825877857872.10014276
1026347.404227187858049.572523061027222.881117817856933.17117838
1027299.857161317856646.396028791027374.660132187856281.41681476
1027406.430856177855986.976945461027410.404733597855414.81424727
1026873.979926937852646.183727971026742.181673827852337.40853689
1026436.800175837854302.578577941026620.345136097854289.05432883
1026613.550988537851723.05601587  1026612.029259 7851461.7258006
1024705.963155797851147.277333271024770.531213837851442.70140929
1027258.637275547854168.539648781027411.011678157855054.72848059
1027413.520746547854768.055871481027322.759332417854484.71735881
1025917.098634217852253.946346261026168.991670117856663.48542387
1025873.410760487851575.556845181026656.634914547852062.03031259
1025718.009606417852466.030952941025688.321009487852640.80300749
1025535.993542757853047.646754841025687.471324037855125.27592965
1025316.565532337855219.441306611025255.494020547855018.92351274
1025184.787200577854850.95131667   1025564.844817853436.64738578
1025713.980802827853035.128436751026587.010583467854101.68896837
1026501.384288677855062.90783225 1026340.5904809 7855288.4777506
1026174.545252647855550.697584531025372.907635817853045.51777169
1025377.651585387853249.962875871025384.130244737853433.14070388
1025378.044047827853645.386851791025382.076309697853859.97987655
1025378.998886857852842.921523551025548.161557097852843.83081324
1025943.658548617852826.138390861025583.339459767854029.59912594
1025392.194910637854210.161715181025398.489952857854397.44730957
1025413.999522427854592.900705661025440.47940343 7854775.3407988
1025471.301027887854966.338364011025514.490106187855163.83552146
1025583.388092727855360.261380061025639.274762367855530.49511719
1025708.765423967855719.45201997 1026149.50551267856102.60654267
1026016.113824277855608.753424331025919.952550597855832.58293018
1025796.423863277856315.059365361025870.739784457856494.91061572
 1026516.15244747857489.667937491026495.50933848 7857669.1642679
1026500.774345647857884.212157921026558.704802327857103.75133016
1026529.53217808 7857313.70139581024696.515825027850875.01757495
1025793.995577797855890.39740219 1025881.67203327856062.92204026
1026218.675354167856859.758305321026226.187472867857043.43459661
1026500.319844647858069.156966141026953.243828877858088.14880308
1026287.822371197857471.222040671026151.952471337856251.60735544
1026163.485539127856456.280027161026024.994449877856667.11204844
1026125.312305977855931.727982531026481.159152637856463.28689928
1026015.878073587856028.922613031027186.870561037857192.70309457
1027420.195605817855690.972186091025960.758206147852384.55415404
1025914.403201627852109.088762581026302.369286027855152.46715799
Storage Area 2D PointsPerimeterTime=21Sep2021 10:50:31
Storage Area Mannings=0.06
2D Cell Volume Filter Tolerance=0.01
2D Cell Minimum Area Fraction=0.01
2D Face Profile Filter Tolerance=0.01
2D Face Area Elevation Profile Filter Tolerance=0.01
2D Face Area Elevation Conveyance Ratio=0.02
2D Face Area Laminar Depth=0.2

BC Line Name=Upstream                        
BC Line Storage Area=Perimeter 1     
BC Line Start Position= 1027205.9574042 , 7858200.23806575 
BC Line Middle Position= 1026600.45058159 , 7858258.45987562 
BC Line End Position= 1025994.94375897 , 7858316.68168548 
BC Line Arc= 2 
 1027205.95740427858200.238065751025994.943758977858316.68168548
BC Line Text Position= 1.79769313486232E+308 , 1.79769313486232E+308 
BC Line Name=Downstream                      
BC Line Storage Area=Perimeter 1     
BC Line Start Position= 1026484.00696185 , 7850421.80426757 
BC Line Middle Position= 1025465.12528918 , 7850567.35879224 
BC Line End Position= 1024446.24361652 , 7850712.9133169 
BC Line Arc= 2 
1026484.006961857850421.804267571024446.24361652 7850712.9133169
BC Line Text Position= 1.79769313486232E+308 , 1.79769313486232E+308 
LCMann Time=Dec/30/1899 00:00:00
LCMann Region Time=Dec/30/1899 00:00:00
LCMann Table=0
Chan Stop Cuts=-1 



Use User Specified Reach Order=0
GIS Ratio Cuts To Invert=-1
GIS Limit At Bridges=0
Composite Channel Slope=5
