Plan Title=100ft Sediment
Program Version=6.10
Short Identifier=100ft Sediment                                                  
Simulation Date=02apr2019,0000,05may2019,2400
Geom File=g01
Flow File=u04
Sediment File=s01
Subcritical Flow
K Sum by GR= 0 
Std Step Tol= 0.01 
Critical Tol= 0.01 
Num of Std Step Trials= 20 
Max Error Tol= 0.3 
Flow Tol Ratio= 0.001 
Split Flow NTrial= 30 
Split Flow Tol= 0.02 
Split Flow Ratio= 0.02 
Log Output Level= 0 
Friction Slope Method= 1 
Unsteady Friction Slope Method= 2 
Unsteady Bridges Friction Slope Method= 1 
Parabolic Critical Depth
Global Vel Dist= 0 , 0 , 0 
Global Log Level= 0 
CheckData=True
Encroach Param=-1 ,0,0, 0 
Computation Interval=2MIN
Output Interval=10MIN
Instantaneous Interval=10MIN
Mapping Interval=30MIN
Computation Time Step Use Courant=        0
Computation Time Step Use Time Series=    0
Computation Time Step Max Courant=4
Computation Time Step Min Courant=1.5
Computation Time Step Count To Double=5
Computation Time Step Max Doubling=4
Computation Time Step Max Halving=2
Computation Time Step Residence Courant=0
Computation Time Step TS=01apr20192400, 6 
Computation Time Step TS=03apr20192400, 1 
Run HTab=-1 
Run UNet=-1 
Run Sediment=-1 
Run PostProcess= 0 
Run WQNet= 0 
Run RASMapper= 0 
UNET Theta= 1 
UNET Theta Warmup= 1 
UNET ZTol= 0.02 
UNET ZSATol= 0.02 
UNET QTol=
UNET MxIter= 20 
UNET Max Iter WO Improvement= 0 
UNET MaxInSteps= 0 
UNET DtIC= 0.01 
UNET DtMin= 0 
UNET MaxCRTS= 20 
UNET WFStab= 3 
UNET SFStab= 3 
UNET WFX= 3 
UNET SFX= 3 
UNET Gravity=32.174
UNET 1D Methodology=Finite Difference
UNET DSS MLevel= 4 
UNET Pardiso=0
UNET DZMax Abort= 100 
UNET Use Existing IB Tables=-1 
UNET Froude Reduction=False
UNET Froude Limit= 0.8 
UNET Froude Power= 4 
UNET D1 Cores= 0 
UNET WindReference=Eulerian
UNET WindDragFormulation=Hsu (1988)
UNET D2 Coriolis=0
UNET D2 Cores= 0 
UNET D2 Theta= 1 
UNET D2 Theta Warmup= 1 
UNET D2 Z Tol= 0.01 
UNET D2 Volume Tol= 0.01 
UNET D2 Max Iterations= 20 
UNET D2 Equation= 1 
UNET D2 TotalICTime=1
UNET D2 RampUpFraction=0.1
UNET D2 TimeSlices= 1 
UNET D2 Turbulence Formulation=None
UNET D2 Eddy Viscosity=0.3
UNET D2 Transverse Eddy Viscosity=0.1
UNET D2 Smagorinsky Mixing=0.05
UNET D2 BCVolumeCheck=0
UNET D2 Latitude=
UNET D2 Cores=0
UNET D2 SolverType=PARDISO (Direct)
UNET D2 Minimum Iterations= 0 
UNET D2 Maximum Iterations= 0 
UNET D2 Restart Number= 10 
UNET D2 Relaxation Coeff=1.3
UNET D2 SOR Precondition Iterations= 10 
UNET D2 ILUT Maximum Fill= 8 
UNET D2 ILUT Tolerance=1E-08
UNET D2 Convergence Tolerance=
UNET D2 Name=Perimeter 1
UNET D2 Theta= 1 
UNET D2 Theta Warmup= 1 
UNET D2 Z Tol= 0.01 
UNET D2 Volume Tol= 0.01 
UNET D2 Max Iterations= 20 
UNET D2 Equation= 0 
UNET D2 TotalICTime=1
UNET D2 RampUpFraction=0.5
UNET D2 TimeSlices= 1 
UNET D2 Turbulence Formulation=None
UNET D2 Eddy Viscosity=0.3
UNET D2 Transverse Eddy Viscosity=0.1
UNET D2 Smagorinsky Mixing=0.05
UNET D2 BCVolumeCheck=0
UNET D2 Latitude=
UNET D2 Cores=2
UNET D2 SolverType=PARDISO (Direct)
UNET D2 Minimum Iterations= 0 
UNET D2 Maximum Iterations= 0 
UNET D2 Restart Number= 10 
UNET D2 Relaxation Coeff=1.3
UNET D2 SOR Precondition Iterations= 10 
UNET D2 ILUT Maximum Fill= 0 
UNET D2 ILUT Tolerance=0
UNET D2 Convergence Tolerance=
UNET D1D2 MaxIter= 0 
UNET D1D2 ZTol=0.01
UNET D1D2 QTol=0.1
UNET D1D2 MinQTol=1
DSS File=dss
Write IC File= 0 
Write IC File at Fixed DateTime=0
IC Time=24,,
Write IC File Reoccurance=720
Write IC File at Sim End=0
Echo Input=False
Echo Parameters=False
Echo Output=False
Write Detailed= 0 
HDF Write Warmup=0
HDF Write Time Slices=0
HDF Flush=0
HDF Compression= 1 
HDF Chunk Size= 1 
HDF Spatial Parts= 1 
HDF Use Max Rows=0
HDF Fixed Rows= 1 
Stage Flow Hydrograph=Mississippi R   ,Lake Pepin      ,765.51
Stage Flow Hydrograph=Mississippi R   ,Lake Pepin      ,765.24
Stage Flow Hydrograph=Mississippi R   ,Lake Pepin      ,764.97
Stage Flow Hydrograph=Mississippi R   ,Lake Pepin      ,764.70
Stage Flow Hydrograph=Mississippi R   ,West to Main    ,764.53
Stage Flow Hydrograph=Mississippi R   ,West to Main    ,764.46
Stage Flow Hydrograph=Mississippi R   ,West to Main    ,764.40
Stage Flow Hydrograph=Mississippi R   ,Main to East    ,763.87
Stage Flow Hydrograph=Mississippi R   ,Main to East    ,763.43
Stage Flow Hydrograph=Mississippi R   ,Main to East    ,763.10
Stage Flow Hydrograph=Mississippi R   ,Lower Pool 4    ,762.72
Stage Flow Hydrograph=Mississippi R   ,Lower Pool 4    ,762.25
Stage Flow Hydrograph=Mississippi R   ,Lower Pool 4    ,761.67
Stage Flow Hydrograph=Mississippi R   ,Lower Pool 4    ,761.09
Stage Flow Hydrograph=Mississippi R   ,Lower Pool 4    ,760.87
Stage Flow Hydrograph=Mississippi R   ,Lower Pool 4    ,760.66
Stage Flow Hydrograph=Mississippi R   ,Lower Pool 4    ,760.29
Stage Flow Hydrograph=Mississippi R   ,Lower Pool 4    ,759.88
Stage Flow Hydrograph=Mississippi R   ,Lower Pool 4    ,759.15
Stage Flow Hydrograph=Mississippi R   ,Lower Pool 4    ,758.27
Stage Flow Hydrograph=Mississippi R   ,Lower Pool 4    ,757.48
Stage Flow Hydrograph=Mississippi R   ,Lower Pool 4    ,756.91
Stage Flow Hydrograph=Mississippi R   ,Lower Pool 4    ,756.11
Stage Flow Hydrograph=Mississippi R   ,Lower Pool 4    ,755.50
Stage Flow Hydrograph=Mississippi R   ,Lower Pool 4    ,754.89
Stage Flow Hydrograph=Mississippi R   ,Lower Pool 4    ,754.00
Stage Flow Hydrograph=East Channel    ,East Channel    ,72453
Stage Flow Hydrograph=East Channel    ,East Channel    ,72068
Stage Flow Hydrograph=East Channel    ,East Channel    ,71735
Stage Flow Hydrograph=East Channel    ,East Channel    ,71460
Stage Flow Hydrograph=East Channel    ,East Channel    ,70223
Stage Flow Hydrograph=East Channel    ,East Channel    ,68715
Stage Flow Hydrograph=East Channel    ,East Channel    ,67142
Stage Flow Hydrograph=East Channel    ,East Channel    ,65354
Stage Flow Hydrograph=East Channel    ,East Channel    ,63949
Stage Flow Hydrograph=East Channel    ,East Channel    ,62217
Stage Flow Hydrograph=East Channel    ,East Channel    ,58445
Stage Flow Hydrograph=East Channel    ,East Channel    ,55223
Stage Flow Hydrograph=East Channel    ,East Channel    ,53362
Stage Flow Hydrograph=East Channel    ,East Channel    ,51090
Stage Flow Hydrograph=East Channel    ,East Channel    ,47839
Stage Flow Hydrograph=East Channel    ,East Channel    ,44501
Stage Flow Hydrograph=East Channel    ,East Channel    ,42755
Stage Flow Hydrograph=East Channel    ,East Channel    ,40773
Stage Flow Hydrograph=East Channel    ,East Channel    ,39698
Stage Flow Hydrograph=East Channel    ,East Channel    ,37672
Stage Flow Hydrograph=East Channel    ,East Channel    ,34384
Stage Flow Hydrograph=East Channel    ,East Channel    ,31966
Stage Flow Hydrograph=East Channel    ,East Channel    ,28599
Stage Flow Hydrograph=East Channel    ,East Channel    ,26754
Stage Flow Hydrograph=East Channel    ,East Channel    ,23420
Stage Flow Hydrograph=East Channel    ,East Channel    ,21711
Stage Flow Hydrograph=East Channel    ,East Channel    ,19214
Stage Flow Hydrograph=East Channel    ,East Channel    ,18131
Stage Flow Hydrograph=East Channel    ,East Channel    ,16732
Stage Flow Hydrograph=East Channel    ,East Channel    ,16250
Stage Flow Hydrograph=East Channel    ,East Channel    ,15950
Stage Flow Hydrograph=East Channel    ,East Channel    ,15646
Stage Flow Hydrograph=East Channel    ,East Channel    ,15022
Stage Flow Hydrograph=East Channel    ,East Channel    ,13146
Stage Flow Hydrograph=East Channel    ,East Channel    ,12194
Stage Flow Hydrograph=East Channel    ,East Channel    ,11471
Stage Flow Hydrograph=East Channel    ,East Channel    ,10747
Stage Flow Hydrograph=East Channel    ,East Channel    ,10257
Stage Flow Hydrograph=East Channel    ,East Channel    ,9036
Stage Flow Hydrograph=East Channel    ,East Channel    ,7667
Stage Flow Hydrograph=East Channel    ,East Channel    ,4475
Stage Flow Hydrograph=East Channel    ,East Channel    ,2038
Stage Flow Hydrograph=East Channel    ,East Channel    ,761
Stage Flow Hydrograph=Chippewa River  ,Durand to Mouth ,92871
Stage Flow Hydrograph=Chippewa River  ,Durand to Mouth ,90065
Stage Flow Hydrograph=Chippewa River  ,Durand to Mouth ,87369
Stage Flow Hydrograph=Chippewa River  ,Durand to Mouth ,85074
Stage Flow Hydrograph=Chippewa River  ,Durand to Mouth ,84014
Stage Flow Hydrograph=Chippewa River  ,Durand to Mouth ,82676
Stage Flow Hydrograph=Chippewa River  ,Durand to Mouth ,79767
Stage Flow Hydrograph=Chippewa River  ,Durand to Mouth ,77486
Stage Flow Hydrograph=Chippewa River  ,Durand to Mouth ,74240
Stage Flow Hydrograph=Chippewa River  ,Durand to Mouth ,71608
Stage Flow Hydrograph=Chippewa River  ,Durand to Mouth ,68510
Stage Flow Hydrograph=Chippewa River  ,Durand to Mouth ,66105
Stage Flow Hydrograph=Chippewa River  ,Durand to Mouth ,64584
Stage Flow Hydrograph=Chippewa River  ,Durand to Mouth ,62759
Stage Flow Hydrograph=Chippewa River  ,Durand to Mouth ,60286
Stage Flow Hydrograph=Chippewa River  ,Durand to Mouth ,58414
Stage Flow Hydrograph=Chippewa River  ,Durand to Mouth ,56876
Stage Flow Hydrograph=Chippewa River  ,Durand to Mouth ,54823
Stage Flow Hydrograph=Chippewa River  ,Durand to Mouth ,52640
Stage Flow Hydrograph=Chippewa River  ,Durand to Mouth ,49879
Stage Flow Hydrograph=Chippewa River  ,Durand to Mouth ,48246
Stage Flow Hydrograph=Chippewa River  ,Durand to Mouth ,46510
Stage Flow Hydrograph=Chippewa River  ,Durand to Mouth ,43379
Stage Flow Hydrograph=Chippewa River  ,Durand to Mouth ,40903
Stage Flow Hydrograph=Chippewa River  ,Durand to Mouth ,38061
Stage Flow Hydrograph=Chippewa River  ,Durand to Mouth ,35218
Stage Flow Hydrograph=Chippewa River  ,Durand to Mouth ,32226
Stage Flow Hydrograph=Chippewa River  ,Durand to Mouth ,28873
Stage Flow Hydrograph=Chippewa River  ,Durand to Mouth ,26473
Stage Flow Hydrograph=Chippewa River  ,Durand to Mouth ,24072
Stage Flow Hydrograph=Chippewa River  ,Durand to Mouth ,22122
Stage Flow Hydrograph=Chippewa River  ,Durand to Mouth ,20370
Stage Flow Hydrograph=Chippewa River  ,Durand to Mouth ,18068
Stage Flow Hydrograph=Chippewa River  ,Durand to Mouth ,16154
Stage Flow Hydrograph=Chippewa River  ,Durand to Mouth ,14641
Stage Flow Hydrograph=Chippewa River  ,Durand to Mouth ,13575
Stage Flow Hydrograph=Chippewa River  ,Durand to Mouth ,12851
Stage Flow Hydrograph=Chippewa River  ,Durand to Mouth ,12479
Stage Flow Hydrograph=Chippewa River  ,Durand to Mouth ,12154
Stage Flow Hydrograph=Chippewa River  ,Durand to Mouth ,11800
Stage Flow Hydrograph=Chippewa River  ,Durand to Mouth ,11680
Stage Flow Hydrograph=Chippewa River  ,Durand to Mouth ,11024
Stage Flow Hydrograph=Chippewa River  ,Durand to Mouth ,10350
Stage Flow Hydrograph=Chippewa River  ,Durand to Mouth ,9798
Stage Flow Hydrograph=Chippewa River  ,Durand to Mouth ,9193
Stage Flow Hydrograph=Chippewa River  ,Durand to Mouth ,8620
Stage Flow Hydrograph=Chippewa River  ,Durand to Mouth ,8280
Stage Flow Hydrograph=Chippewa River  ,Durand to Mouth ,7687
Stage Flow Hydrograph=Chippewa River  ,Durand to Mouth ,7168
Stage Flow Hydrograph=Chippewa River  ,Durand to Mouth ,6475
Stage Flow Hydrograph=Chippewa River  ,Durand to Mouth ,6042
Stage Flow Hydrograph=Chippewa River  ,Durand to Mouth ,5438
Stage Flow Hydrograph=Chippewa River  ,Durand to Mouth ,2902
Calibration Method= 0 
Calibration Iterations= 20 
Calibration Max Change=0.05
Calibration Tolerance=0.2
Calibration Maximum=1.5
Calibration Minimum=0.5
Calibration Optimization Method= 1 
Calibration Window=,,,
WQ AD Non Conservative
WQ ULTIMATE=-1
WQ Max Comp Step=1HOUR
WQ Output Interval=15MIN
WQ Output Selected Increments= 0 
WQ Output face flow=0
WQ Output face velocity=0
WQ Output face area=0
WQ Output face dispersion=0
WQ Output cell volume=0
WQ Output cell surface area=0
WQ Output cell continuity=0
WQ Output cumulative cell continuity=0
WQ Output face conc=0
WQ Output face dconc_dx=0
WQ Output face courant=0
WQ Output face peclet=0
WQ Output face adv mass=0
WQ Output face disp mass=0
WQ Output cell mass=0
WQ Output cell source sink temp=0
WQ Output nsm pathways=0
WQ Output nsm derived pathways=0
WQ Create Restart=0
WQ Fixed Restart=0
WQ Restart Simtime=
WQ Restart Date=
WQ Restart Hour=
WQ System Summary=0
WQ Write To DSS=0
Sorting and Armoring Iterations= 10 
XS Update Threshold= 0.02 
Bed Roughness Predictor= 0 
Hydraulics Update Threshold= 0.02 
Energy Slope Method= 1 
Volume Change Method= 1 
Sediment Retention Method= 0 
Sediment TS Multiplier= 1 
Warm Up Method= 0 
Warm Up Duration=
Warm Up Duration - Concentration=0.01
Warm Up Duration - Gradation=
Warm Up Duration - Bathymetry=
XS Weighting Method= 0 
Number of US Weighted Cross Sections= 1 
Number of DS Weighted Cross Sections= 1 
Upstream XS Weight=0
Main XS Weight=1
Downstream XS Weight=0
Number of DS XS's Weighted with US Boundary= 1 
Upstream Boundary Weight= 1 
Weight of XSs Associated with US Boundary= 0 
Number of US XS's Weighted with DS Boundary= 1 
Downstream Boundary Weight= 0.5 
Weight of XSs Associated with DS Boundary= 0.5 
Percentile Method= 0 
Sediment Output Level= 3 
Sediment Output Variables=2D Cell Manning Total
Sediment Output Variables=2D Cell Manning Grain
Sediment Output Variables=2D Cell Settling Velocity (by GC)
Sediment Output Variables=2D Cell Critical Shear Stress (by GC)
Sediment Output Variables=2D Cell d50 Active
Sediment Output Variables=2D Cell d10 Active
Sediment Output Variables=2D Cell d90 Active
Sediment Output Variables=2D Cell Total-load Concentration (by GC)
Sediment Output Variables=2D Cell Total-load Conc Capacity (by GC)
Mass or Volume Output= 1 
Output Increment Type= 4 
Profile and TS Output Increment= 1 
Transport Output Increment 1 
XS Output Flag= 0 
XS Output Increment= 30 
Read HDF5 Sediment Hotstart= 0 
Sediment Hotstart Type= 0 
Sediment Hotstart File=
Sediment Hotstart Date=
Sediment Hotstart Time=
Write Gradation File= 0 
Read Gradation Hotstart= 0 
Gradation File Name=
Write HDF5 File= 1 
Write Binary Output= 1 
Write DSS Sediment File= 0 
DSS Sediment Output Type= 1 
DSS Location=
Summary Reach=
SV Curve= 0 
Specific Gage Flag= 0 
Subcell Erosion Methods= 0 
Subcell Deposition Methods= 0 
Advection Scheme= 0 
Matrix Solver= 1 
Implicit Weighting Factor= 1 
Maximum Outer Loop Convergence Iterations= 3 
Convergence Maximum Absolute= 0.001 
Convergence RMSE= 0.0001 
Grain Fractions Max Abs Error= 0.001 
Max Subgrid Regions= 1 
Max Subgrid Length Scale= 3.402823E+38 
Initial Layer Thickness= 0.2 
Min Layer Thickness= 0.1 
Max Layer Thickness= 0.5 
Number of Layers= 5 
Dredge Event=1975
Dredge Event Method= 1 
Dredge Trigger= 0 
Dredge Event Date=01JUL1975,0000
Dredge Event End Date=,
Dredge Fate Flag= 0 
Dredge Fate Percentage=
Dredge Fate Threshold= 0 
Dredge Fate Location=;;
Dredge River Reach=East Channel,East Channel
Dredge River Reach=Mississippi R,Lake Pepin
Dredge RS=765.51,1500,300,654.6
Dredge RS=765.24,1780,300,654.6
Dredge RS=764.97,1750,300,654.6
Dredge RS=764.70,1900,300,654.6
Dredge River Reach=Mississippi R,West to Main
Dredge RS=764.53,2250,500,654.6
Dredge RS=764.46,2430,500,654.6
Dredge RS=764.40,2330,500,654.6
Dredge River Reach=Mississippi R,Main to East
Dredge RS=763.87,3420,1500,654.6
Dredge RS=763.76,3100,1000,654.6
Dredge RS=763.65,2950,600,654.6
Dredge RS=763.54,2550,600,654.6
Dredge RS=763.43,2100,600,654.6
Dredge RS=763.32,1585,600,654.6
Dredge RS=763.21,1500,600,654.6
Dredge RS=763.10,1300,600,654.6
Dredge River Reach=Mississippi R,Lower Pool 4
Dredge RS=762.72,750,300,654.6
Dredge RS=762.56,800,300,654.6
Dredge RS=762.41,1000,300,654.6
Dredge RS=762.25,1200,300,654.6
Dredge RS=762.11,1500,300,654.6
Dredge RS=761.96,1680,300,654.6
Dredge RS=761.82,1950,300,654.6
Dredge RS=761.67,2340,300,654.6
Dredge RS=761.53,2250,300,654.6
Dredge RS=761.38,2450,300,654.6
Dredge RS=761.24,2550,300,654.6
Dredge RS=761.09,2630,300,654.6
Dredge RS=760.98,2650,300,654.6
Dredge RS=760.87,2750,300,654.6
Dredge RS=760.77,4550,300,654.6
Dredge RS=760.66,6550,300,654.6
Dredge RS=760.48,10450,300,654.6
Dredge RS=760.29,14500,300,654.6
Dredge RS=760.15,13450,600,654.6
Dredge RS=760.02,12600,600,654.6
Dredge RS=759.88,11950,600,654.6
Dredge RS=759.70,11350,600,654.6
Dredge RS=759.52,10550,600,654.6
Dredge RS=759.33,10550,600,654.6
Dredge RS=759.15,10400,400,654.5
Dredge RS=758.97,10350,350,654.5
Dredge RS=758.80,10450,300,654.5
Dredge RS=758.62,10550,600,654.5
Dredge RS=758.45,9950,600,654.5
Dredge RS=758.27,9450,600,654.4
Dredge RS=758.11,8700,600,654.4
Dredge RS=757.95,7800,300,654.4
Dredge RS=757.80,6750,300,654.4
Dredge RS=757.64,6100,600,654.4
Dredge RS=757.48,5550,600,654.4
Dredge RS=757.34,5100,600,654.4
Dredge RS=757.19,5000,600,654.4
Dredge RS=757.05,4800,600,654.4
Dredge RS=756.91,3450,600,654.4
Dredge RS=756.75,3800,600,654.4
Dredge RS=756.59,4450,300,654.4
Dredge RS=756.43,4550,300,654.4
Dredge RS=756.27,4800,300,654.4
Dredge RS=756.11,4830,300,654.3
Dredge RS=755.96,6200,300,654.3
Dredge RS=755.81,7700,300,654.3
Dredge RS=755.65,9200,300,654.3
Dredge RS=755.50,10730,300,654.25
Dredge RS=755.35,9100,300,654.25
Dredge RS=755.20,8000,600,654.25
Dredge RS=755.04,7100,600,654.25
Dredge RS=754.89,6280,300,654.2
Dredge RS=754.71,3650,300,654.2
Dredge RS=754.53,5100,300,654.2
Dredge RS=754.36,2150,300,654.2
Dredge RS=754.18,1950,300,654.2
Dredge RS=754.00,4220,300,654.1
Dredge River Reach=Chippewa River,Durand to Mouth
Dredge RS=5438,3500,500,654.6
Dredge RS=2902,4200,500,654.6
Dredge River Reach=West Channel,West Channel
Dredge Event=1976
Dredge Event Method= 1 
Dredge Trigger= 0 
Dredge Event Date=01JUL1976,0000
Dredge Event End Date=,
Dredge Fate Flag= 0 
Dredge Fate Percentage=
Dredge Fate Threshold= 0 
Dredge Fate Location=;;
Dredge River Reach=East Channel,East Channel
Dredge River Reach=Mississippi R,Lake Pepin
Dredge RS=765.51,1500,300,654.6
Dredge RS=765.24,1780,300,654.6
Dredge RS=764.97,1750,300,654.6
Dredge RS=764.70,1900,300,654.6
Dredge River Reach=Mississippi R,West to Main
Dredge RS=764.53,2250,500,654.6
Dredge RS=764.46,2430,500,654.6
Dredge RS=764.40,2330,500,654.6
Dredge River Reach=Mississippi R,Main to East
Dredge RS=763.87,3420,1500,654.6
Dredge RS=763.76,3100,1000,654.6
Dredge RS=763.65,2950,600,654.6
Dredge RS=763.54,2550,600,654.6
Dredge RS=763.43,2100,600,654.6
Dredge RS=763.32,1585,600,654.6
Dredge RS=763.21,1500,600,654.6
Dredge RS=763.10,1300,600,654.6
Dredge River Reach=Mississippi R,Lower Pool 4
Dredge RS=762.72,750,300,654.6
Dredge RS=762.56,800,300,654.6
Dredge RS=762.41,1000,300,654.6
Dredge RS=762.25,1200,300,654.6
Dredge RS=762.11,1500,300,654.6
Dredge RS=761.96,1680,300,654.6
Dredge RS=761.82,1950,300,654.6
Dredge RS=761.67,2340,300,654.6
Dredge RS=761.53,2250,300,654.6
Dredge RS=761.38,2450,300,654.6
Dredge RS=761.24,2550,300,654.6
Dredge RS=761.09,2630,300,654.6
Dredge RS=760.98,2650,300,654.6
Dredge RS=760.87,2750,300,654.6
Dredge RS=760.77,4550,300,654.6
Dredge RS=760.66,6550,300,654.6
Dredge RS=760.48,10450,300,654.6
Dredge RS=760.29,14500,300,654.6
Dredge RS=760.15,13450,600,654.6
Dredge RS=760.02,12600,600,654.6
Dredge RS=759.88,11950,600,654.6
Dredge RS=759.70,11350,600,654.6
Dredge RS=759.52,10550,600,654.6
Dredge RS=759.33,10550,600,654.6
Dredge RS=759.15,10400,400,654.5
Dredge RS=758.97,10350,350,654.5
Dredge RS=758.80,10450,300,654.5
Dredge RS=758.62,10550,600,654.5
Dredge RS=758.45,9950,600,654.5
Dredge RS=758.27,9450,600,654.4
Dredge RS=758.11,8700,600,654.4
Dredge RS=757.95,7800,300,654.4
Dredge RS=757.80,6750,300,654.4
Dredge RS=757.64,6100,600,654.4
Dredge RS=757.48,5550,600,654.4
Dredge RS=757.34,5100,600,654.4
Dredge RS=757.19,5000,600,654.4
Dredge RS=757.05,4800,600,654.4
Dredge RS=756.91,3450,600,654.4
Dredge RS=756.75,3800,600,654.4
Dredge RS=756.59,4450,300,654.4
Dredge RS=756.43,4550,300,654.4
Dredge RS=756.27,4800,300,654.4
Dredge RS=756.11,4830,300,654.3
Dredge RS=755.96,6200,300,654.3
Dredge RS=755.81,7700,300,654.3
Dredge RS=755.65,9200,300,654.3
Dredge RS=755.50,10730,300,654.25
Dredge RS=755.35,9100,300,654.25
Dredge RS=755.20,8000,600,654.25
Dredge RS=755.04,7100,600,654.25
Dredge RS=754.89,6280,300,654.2
Dredge RS=754.71,3650,300,654.2
Dredge RS=754.53,5100,300,654.2
Dredge RS=754.36,2150,300,654.2
Dredge RS=754.18,1950,300,654.2
Dredge RS=754.00,4220,300,654.1
Dredge River Reach=Chippewa River,Durand to Mouth
Dredge RS=5438,3500,500,654.6
Dredge RS=2902,4200,500,654.6
Dredge Event=1977
Dredge Event Method= 1 
Dredge Trigger= 0 
Dredge Event Date=01JUL1977,0000
Dredge Event End Date=,
Dredge Fate Flag= 0 
Dredge Fate Percentage=
Dredge Fate Threshold= 0 
Dredge Fate Location=;;
Dredge River Reach=East Channel,East Channel
Dredge River Reach=Mississippi R,Lake Pepin
Dredge RS=765.51,1500,300,654.6
Dredge RS=765.24,1780,300,654.6
Dredge RS=764.97,1750,300,654.6
Dredge RS=764.70,1900,300,654.6
Dredge River Reach=Mississippi R,West to Main
Dredge RS=764.53,2250,500,654.6
Dredge RS=764.46,2430,500,654.6
Dredge RS=764.40,2330,500,654.6
Dredge River Reach=Mississippi R,Main to East
Dredge RS=763.87,3420,1500,654.6
Dredge RS=763.76,3100,1000,654.6
Dredge RS=763.65,2950,600,654.6
Dredge RS=763.54,2550,600,654.6
Dredge RS=763.43,2100,600,654.6
Dredge RS=763.32,1585,600,654.6
Dredge RS=763.21,1500,600,654.6
Dredge RS=763.10,1300,600,654.6
Dredge River Reach=Mississippi R,Lower Pool 4
Dredge RS=762.72,750,300,654.6
Dredge RS=762.56,800,300,654.6
Dredge RS=762.41,1000,300,654.6
Dredge RS=762.25,1200,300,654.6
Dredge RS=762.11,1500,300,654.6
Dredge RS=761.96,1680,300,654.6
Dredge RS=761.82,1950,300,654.6
Dredge RS=761.67,2340,300,654.6
Dredge RS=761.53,2250,300,654.6
Dredge RS=761.38,2450,300,654.6
Dredge RS=761.24,2550,300,654.6
Dredge RS=761.09,2630,300,654.6
Dredge RS=760.98,2650,300,654.6
Dredge RS=760.87,2750,300,654.6
Dredge RS=760.77,4550,300,654.6
Dredge RS=760.66,6550,300,654.6
Dredge RS=760.48,10450,300,654.6
Dredge RS=760.29,14500,300,654.6
Dredge RS=760.15,13450,600,654.6
Dredge RS=760.02,12600,600,654.6
Dredge RS=759.88,11950,600,654.6
Dredge RS=759.70,11350,600,654.6
Dredge RS=759.52,10550,600,654.6
Dredge RS=759.33,10550,600,654.6
Dredge RS=759.15,10400,400,654.5
Dredge RS=758.97,10350,350,654.5
Dredge RS=758.80,10450,300,654.5
Dredge RS=758.62,10550,600,654.5
Dredge RS=758.45,9950,600,654.5
Dredge RS=758.27,9450,600,654.4
Dredge RS=758.11,8700,600,654.4
Dredge RS=757.95,7800,300,654.4
Dredge RS=757.80,6750,300,654.4
Dredge RS=757.64,6100,600,654.4
Dredge RS=757.48,5550,600,654.4
Dredge RS=757.34,5100,600,654.4
Dredge RS=757.19,5000,600,654.4
Dredge RS=757.05,4800,600,654.4
Dredge RS=756.91,3450,600,654.4
Dredge RS=756.75,3800,600,654.4
Dredge RS=756.59,4450,300,654.4
Dredge RS=756.43,4550,300,654.4
Dredge RS=756.27,4800,300,654.4
Dredge RS=756.11,4830,300,654.3
Dredge RS=755.96,6200,300,654.3
Dredge RS=755.81,7700,300,654.3
Dredge RS=755.65,9200,300,654.3
Dredge RS=755.50,10730,300,654.25
Dredge RS=755.35,9100,300,654.25
Dredge RS=755.20,8000,600,654.25
Dredge RS=755.04,7100,600,654.25
Dredge RS=754.89,6280,300,654.2
Dredge RS=754.71,3650,300,654.2
Dredge RS=754.53,5100,300,654.2
Dredge RS=754.36,2150,300,654.2
Dredge RS=754.18,1950,300,654.2
Dredge RS=754.00,4220,300,654.1
Dredge River Reach=Chippewa River,Durand to Mouth
Dredge RS=5438,3500,500,654.6
Dredge RS=2902,4200,500,654.6
Dredge Event=1978
Dredge Event Method= 1 
Dredge Trigger= 0 
Dredge Event Date=01JUL1978,0000
Dredge Event End Date=,
Dredge Fate Flag= 0 
Dredge Fate Percentage=
Dredge Fate Threshold= 0 
Dredge Fate Location=;;
Dredge River Reach=East Channel,East Channel
Dredge River Reach=Mississippi R,Lake Pepin
Dredge RS=765.51,1500,300,654.6
Dredge RS=765.24,1780,300,654.6
Dredge RS=764.97,1750,300,654.6
Dredge RS=764.70,1900,300,654.6
Dredge River Reach=Mississippi R,West to Main
Dredge RS=764.53,2250,500,654.6
Dredge RS=764.46,2430,500,654.6
Dredge RS=764.40,2330,500,654.6
Dredge River Reach=Mississippi R,Main to East
Dredge RS=763.87,3420,1500,654.6
Dredge RS=763.76,3100,1000,654.6
Dredge RS=763.65,2950,600,654.6
Dredge RS=763.54,2550,600,654.6
Dredge RS=763.43,2100,600,654.6
Dredge RS=763.32,1585,600,654.6
Dredge RS=763.21,1500,600,654.6
Dredge RS=763.10,1300,600,654.6
Dredge River Reach=Mississippi R,Lower Pool 4
Dredge RS=762.72,750,300,654.6
Dredge RS=762.56,800,300,654.6
Dredge RS=762.41,1000,300,654.6
Dredge RS=762.25,1200,300,654.6
Dredge RS=762.11,1500,300,654.6
Dredge RS=761.96,1680,300,654.6
Dredge RS=761.82,1950,300,654.6
Dredge RS=761.67,2340,300,654.6
Dredge RS=761.53,2250,300,654.6
Dredge RS=761.38,2450,300,654.6
Dredge RS=761.24,2550,300,654.6
Dredge RS=761.09,2630,300,654.6
Dredge RS=760.98,2650,300,654.6
Dredge RS=760.87,2750,300,654.6
Dredge RS=760.77,4550,300,654.6
Dredge RS=760.66,6550,300,654.6
Dredge RS=760.48,10450,300,654.6
Dredge RS=760.29,14500,300,654.6
Dredge RS=760.15,13450,600,654.6
Dredge RS=760.02,12600,600,654.6
Dredge RS=759.88,11950,600,654.6
Dredge RS=759.70,11350,600,654.6
Dredge RS=759.52,10550,600,654.6
Dredge RS=759.33,10550,600,654.6
Dredge RS=759.15,10400,400,654.5
Dredge RS=758.97,10350,350,654.5
Dredge RS=758.80,10450,300,654.5
Dredge RS=758.62,10550,600,654.5
Dredge RS=758.45,9950,600,654.5
Dredge RS=758.27,9450,600,654.4
Dredge RS=758.11,8700,600,654.4
Dredge RS=757.95,7800,300,654.4
Dredge RS=757.80,6750,300,654.4
Dredge RS=757.64,6100,600,654.4
Dredge RS=757.48,5550,600,654.4
Dredge RS=757.34,5100,600,654.4
Dredge RS=757.19,5000,600,654.4
Dredge RS=757.05,4800,600,654.4
Dredge RS=756.91,3450,600,654.4
Dredge RS=756.75,3800,600,654.4
Dredge RS=756.59,4450,300,654.4
Dredge RS=756.43,4550,300,654.4
Dredge RS=756.27,4800,300,654.4
Dredge RS=756.11,4830,300,654.3
Dredge RS=755.96,6200,300,654.3
Dredge RS=755.81,7700,300,654.3
Dredge RS=755.65,9200,300,654.3
Dredge RS=755.50,10730,300,654.25
Dredge RS=755.35,9100,300,654.25
Dredge RS=755.20,8000,600,654.25
Dredge RS=755.04,7100,600,654.25
Dredge RS=754.89,6280,300,654.2
Dredge RS=754.71,3650,300,654.2
Dredge RS=754.53,5100,300,654.2
Dredge RS=754.36,2150,300,654.2
Dredge RS=754.18,1950,300,654.2
Dredge RS=754.00,4220,300,654.1
Dredge River Reach=Chippewa River,Durand to Mouth
Dredge RS=5438,3500,500,654.6
Dredge RS=2902,4200,500,654.6
Dredge Event=1979
Dredge Event Method= 1 
Dredge Trigger= 0 
Dredge Event Date=01JUL1979,0000
Dredge Event End Date=,
Dredge Fate Flag= 0 
Dredge Fate Percentage=
Dredge Fate Threshold= 0 
Dredge Fate Location=;;
Dredge River Reach=East Channel,East Channel
Dredge River Reach=Mississippi R,Lake Pepin
Dredge RS=765.51,1500,300,654.6
Dredge RS=765.24,1780,300,654.6
Dredge RS=764.97,1750,300,654.6
Dredge RS=764.70,1900,300,654.6
Dredge River Reach=Mississippi R,West to Main
Dredge RS=764.53,2250,500,654.6
Dredge RS=764.46,2430,500,654.6
Dredge RS=764.40,2330,500,654.6
Dredge River Reach=Mississippi R,Main to East
Dredge RS=763.87,3420,1500,654.6
Dredge RS=763.76,3100,1000,654.6
Dredge RS=763.65,2950,600,654.6
Dredge RS=763.54,2550,600,654.6
Dredge RS=763.43,2100,600,654.6
Dredge RS=763.32,1585,600,654.6
Dredge RS=763.21,1500,600,654.6
Dredge RS=763.10,1300,600,654.6
Dredge River Reach=Mississippi R,Lower Pool 4
Dredge RS=762.72,750,300,654.6
Dredge RS=762.56,800,300,654.6
Dredge RS=762.41,1000,300,654.6
Dredge RS=762.25,1200,300,654.6
Dredge RS=762.11,1500,300,654.6
Dredge RS=761.96,1680,300,654.6
Dredge RS=761.82,1950,300,654.6
Dredge RS=761.67,2340,300,654.6
Dredge RS=761.53,2250,300,654.6
Dredge RS=761.38,2450,300,654.6
Dredge RS=761.24,2550,300,654.6
Dredge RS=761.09,2630,300,654.6
Dredge RS=760.98,2650,300,654.6
Dredge RS=760.87,2750,300,654.6
Dredge RS=760.77,4550,300,654.6
Dredge RS=760.66,6550,300,654.6
Dredge RS=760.48,10450,300,654.6
Dredge RS=760.29,14500,300,654.6
Dredge RS=760.15,13450,600,654.6
Dredge RS=760.02,12600,600,654.6
Dredge RS=759.88,11950,600,654.6
Dredge RS=759.70,11350,600,654.6
Dredge RS=759.52,10550,600,654.6
Dredge RS=759.33,10550,600,654.6
Dredge RS=759.15,10400,400,654.5
Dredge RS=758.97,10350,350,654.5
Dredge RS=758.80,10450,300,654.5
Dredge RS=758.62,10550,600,654.5
Dredge RS=758.45,9950,600,654.5
Dredge RS=758.27,9450,600,654.4
Dredge RS=758.11,8700,600,654.4
Dredge RS=757.95,7800,300,654.4
Dredge RS=757.80,6750,300,654.4
Dredge RS=757.64,6100,600,654.4
Dredge RS=757.48,5550,600,654.4
Dredge RS=757.34,5100,600,654.4
Dredge RS=757.19,5000,600,654.4
Dredge RS=757.05,4800,600,654.4
Dredge RS=756.91,3450,600,654.4
Dredge RS=756.75,3800,600,654.4
Dredge RS=756.59,4450,300,654.4
Dredge RS=756.43,4550,300,654.4
Dredge RS=756.27,4800,300,654.4
Dredge RS=756.11,4830,300,654.3
Dredge RS=755.96,6200,300,654.3
Dredge RS=755.81,7700,300,654.3
Dredge RS=755.65,9200,300,654.3
Dredge RS=755.50,10730,300,654.25
Dredge RS=755.35,9100,300,654.25
Dredge RS=755.20,8000,600,654.25
Dredge RS=755.04,7100,600,654.25
Dredge RS=754.89,6280,300,654.2
Dredge RS=754.71,3650,300,654.2
Dredge RS=754.53,5100,300,654.2
Dredge RS=754.36,2150,300,654.2
Dredge RS=754.18,1950,300,654.2
Dredge RS=754.00,4220,300,654.1
Dredge River Reach=Chippewa River,Durand to Mouth
Dredge RS=5438,3500,500,654.6
Dredge RS=2902,4200,500,654.6
Dredge Event=1980
Dredge Event Method= 1 
Dredge Trigger= 0 
Dredge Event Date=01JUL1980,0000
Dredge Event End Date=,
Dredge Fate Flag= 0 
Dredge Fate Percentage=
Dredge Fate Threshold= 0 
Dredge Fate Location=;;
Dredge River Reach=East Channel,East Channel
Dredge River Reach=Mississippi R,Lake Pepin
Dredge RS=765.51,1500,300,654.6
Dredge RS=765.24,1780,300,654.6
Dredge RS=764.97,1750,300,654.6
Dredge RS=764.70,1900,300,654.6
Dredge River Reach=Mississippi R,West to Main
Dredge RS=764.53,2250,500,654.6
Dredge RS=764.46,2430,500,654.6
Dredge RS=764.40,2330,500,654.6
Dredge River Reach=Mississippi R,Main to East
Dredge RS=763.87,3420,1500,654.6
Dredge RS=763.76,3100,1000,654.6
Dredge RS=763.65,2950,600,654.6
Dredge RS=763.54,2550,600,654.6
Dredge RS=763.43,2100,600,654.6
Dredge RS=763.32,1585,600,654.6
Dredge RS=763.21,1500,600,654.6
Dredge RS=763.10,1300,600,654.6
Dredge River Reach=Mississippi R,Lower Pool 4
Dredge RS=762.72,750,300,654.6
Dredge RS=762.56,800,300,654.6
Dredge RS=762.41,1000,300,654.6
Dredge RS=762.25,1200,300,654.6